@<TRIPOS>MOLECULE
nora
 23 23 0 0 0
SMALL
USER_CHARGES

@<TRIPOS>ATOM
      1 N1         -0.0116    1.0048    0.0076 N.4     1  <0>1        0.3214
      2 H2          0.0021   -0.0041    0.0020 H       1  <0>1        0.2325
      3 H3          0.9350    1.3541    0.0004 H       1  <0>1        0.2325
      4 C5         -0.6992    1.4786    1.2162 C.3     1  <0>1        0.0235
      5 C6         -2.1346    0.9490    1.2270 C.3     1  <0>1        0.1212
      6 H7         -2.1198   -0.1409    1.2210 H       1  <0>1        0.0698
      7 O8         -2.8257    1.4224    0.0693 O.3     1  <0>1       -0.3818
      8 C9         -2.8400    1.4350    2.4669 C.ar    1  <0>1       -0.0104
      9 C10        -3.4443    2.6779    2.4740 C.ar    1  <0>1       -0.0523
     10 C11        -4.0924    3.1286    3.6094 C.ar    1  <0>1       -0.0162
     11 C12        -4.1373    2.3336    4.7428 C.ar    1  <0>1        0.1582
     12 O13        -4.7747    2.7751    5.8601 O.3     1  <0>1       -0.5033
     13 C14        -3.5291    1.0816    4.7356 C.ar    1  <0>1        0.1586
     14 O15        -3.5709    0.2972    5.8457 O.3     1  <0>1       -0.5033
     15 C16        -2.8860    0.6340    3.5932 C.ar    1  <0>1       -0.0107
     16 H17        -0.1720    1.1175    2.0992 H       1  <0>1        0.0857
     17 H18        -0.7140    2.5685    1.2222 H       1  <0>1        0.0857
     18 H19        -2.8776    2.3861    0.0089 H       1  <0>1        0.2105
     19 H20        -3.4099    3.2988    1.5909 H       1  <0>1        0.0622
     20 H21        -4.5632    4.1006    3.6125 H       1  <0>1        0.0655
     21 H22        -5.7115    2.5386    5.8979 H       1  <0>1        0.2923
     22 H23        -4.3356   -0.2936    5.8813 H       1  <0>1        0.2923
     23 H24        -2.4133   -0.3370    3.5850 H       1  <0>1        0.0659
@<TRIPOS>BOND
     1     1     2    1
     2     1     3    1
     3     1     4    1
     4     4     5    1
     5     4    16    1
     6     4    17    1
     7     5     6    1
     8     5     7    1
     9     5     8    1
    10     7    18    1
    11     8    15   ar
    12     8     9   ar
    13     9    10   ar
    14     9    19    1
    15    10    11   ar
    16    10    20    1
    17    11    12    1
    18    11    13   ar
    19    12    21    1
    20    13    14    1
    21    13    15   ar
    22    14    22    1
    23    15    23    1
